Version 4
SHEET 1 1736 1224
WIRE 1168 144 1120 144
WIRE 1408 144 1376 144
WIRE 1376 160 1376 144
WIRE 1376 160 1328 160
WIRE 1648 160 1568 160
WIRE 1168 176 1072 176
WIRE 1376 176 1376 160
WIRE 1408 176 1376 176
WIRE 624 224 576 224
WIRE 864 224 832 224
WIRE 832 240 832 224
WIRE 832 240 784 240
WIRE 1072 240 1072 176
WIRE 1072 240 1024 240
WIRE 624 256 576 256
WIRE 832 256 832 240
WIRE 864 256 832 256
WIRE 1168 272 1120 272
WIRE 1408 272 1376 272
WIRE 1376 288 1376 272
WIRE 1376 288 1328 288
WIRE 1648 288 1568 288
WIRE 1072 304 1072 240
WIRE 1168 304 1072 304
WIRE 1376 304 1376 288
WIRE 1408 304 1376 304
WIRE 1168 416 1120 416
WIRE 1408 416 1376 416
WIRE 624 432 576 432
WIRE 864 432 832 432
WIRE 1376 432 1376 416
WIRE 1376 432 1328 432
WIRE 1648 432 1568 432
WIRE 832 448 832 432
WIRE 832 448 784 448
WIRE 1168 448 1024 448
WIRE 1376 448 1376 432
WIRE 1408 448 1376 448
WIRE 624 464 576 464
WIRE 832 464 832 448
WIRE 864 464 832 464
WIRE 384 480 64 480
WIRE 1168 560 1120 560
WIRE 1408 560 1376 560
WIRE 624 576 576 576
WIRE 864 576 832 576
WIRE 1376 576 1376 560
WIRE 1376 576 1328 576
WIRE 1648 576 1568 576
WIRE 832 592 832 576
WIRE 832 592 784 592
WIRE 1168 592 1024 592
WIRE 1376 592 1376 576
WIRE 1408 592 1376 592
WIRE 160 608 128 608
WIRE 624 608 576 608
WIRE 832 608 832 592
WIRE 864 608 832 608
WIRE 128 624 128 608
WIRE 128 624 64 624
WIRE 384 624 320 624
WIRE 128 640 128 624
WIRE 160 640 128 640
WIRE 1168 704 1120 704
WIRE 1408 704 1376 704
WIRE 624 720 576 720
WIRE 864 720 832 720
WIRE 1376 720 1376 704
WIRE 1376 720 1328 720
WIRE 1648 720 1568 720
WIRE 160 736 128 736
WIRE 832 736 832 720
WIRE 832 736 784 736
WIRE 1168 736 1024 736
WIRE 1376 736 1376 720
WIRE 1408 736 1376 736
WIRE 128 752 128 736
WIRE 128 752 64 752
WIRE 384 752 320 752
WIRE 624 752 576 752
WIRE 832 752 832 736
WIRE 864 752 832 752
WIRE 128 768 128 752
WIRE 160 768 128 768
WIRE 1168 848 1120 848
WIRE 1408 848 1376 848
WIRE 160 864 128 864
WIRE 624 864 576 864
WIRE 864 864 832 864
WIRE 1376 864 1376 848
WIRE 1376 864 1328 864
WIRE 1648 864 1568 864
WIRE 128 880 128 864
WIRE 128 880 64 880
WIRE 384 880 320 880
WIRE 832 880 832 864
WIRE 832 880 784 880
WIRE 1168 880 1024 880
WIRE 1376 880 1376 864
WIRE 1408 880 1376 880
WIRE 128 896 128 880
WIRE 160 896 128 896
WIRE 624 896 576 896
WIRE 832 896 832 880
WIRE 864 896 832 896
WIRE 1168 992 1120 992
WIRE 1408 992 1376 992
WIRE 1376 1008 1376 992
WIRE 1376 1008 1328 1008
WIRE 1648 1008 1568 1008
WIRE 1168 1024 1072 1024
WIRE 1376 1024 1376 1008
WIRE 1408 1024 1376 1024
WIRE 624 1072 576 1072
WIRE 864 1072 832 1072
WIRE 832 1088 832 1072
WIRE 832 1088 784 1088
WIRE 1072 1088 1072 1024
WIRE 1072 1088 1024 1088
WIRE 624 1104 576 1104
WIRE 832 1104 832 1088
WIRE 864 1104 832 1104
WIRE 1168 1120 1120 1120
WIRE 1408 1120 1376 1120
WIRE 1376 1136 1376 1120
WIRE 1376 1136 1328 1136
WIRE 1648 1136 1568 1136
WIRE 1072 1152 1072 1088
WIRE 1168 1152 1072 1152
WIRE 1376 1152 1376 1136
WIRE 1408 1152 1376 1152
FLAG 384 624 nA
FLAG 384 752 nB
FLAG 384 880 nC
FLAG 64 624 A
IOPIN 64 624 In
FLAG 64 752 B
IOPIN 64 752 In
FLAG 64 880 C
IOPIN 64 880 In
FLAG 576 224 nA
FLAG 576 256 nB
FLAG 1120 144 nC
FLAG 1120 272 C
IOPIN 1120 272 In
FLAG 1648 160 o1
IOPIN 1648 160 Out
FLAG 1648 288 o2
IOPIN 1648 288 Out
FLAG 576 432 nA
FLAG 576 464 nC
FLAG 1120 416 B
IOPIN 1120 416 In
FLAG 1648 432 o3
IOPIN 1648 432 Out
FLAG 576 608 C
IOPIN 576 608 In
FLAG 576 576 B
IOPIN 576 576 In
FLAG 1120 560 nA
FLAG 1648 576 o4
IOPIN 1648 576 Out
FLAG 576 720 nB
FLAG 576 752 nC
FLAG 1120 704 A
IOPIN 1120 704 In
FLAG 1648 720 o5
IOPIN 1648 720 Out
FLAG 576 864 A
IOPIN 576 864 In
FLAG 576 896 C
IOPIN 576 896 In
FLAG 1120 848 nB
FLAG 1648 864 o6
IOPIN 1648 864 Out
FLAG 1648 1008 o7
IOPIN 1648 1008 Out
FLAG 576 1072 A
IOPIN 576 1072 In
FLAG 576 1104 B
IOPIN 576 1104 In
FLAG 1120 992 nC
FLAG 1120 1120 C
IOPIN 1120 1120 In
FLAG 1648 1136 o8
IOPIN 1648 1136 Out
FLAG 224 560 Vdd
FLAG 224 688 Vdd
FLAG 224 816 Vdd
FLAG 688 176 Vdd
FLAG 688 384 Vdd
FLAG 688 528 Vdd
FLAG 688 672 Vdd
FLAG 688 816 Vdd
FLAG 688 1024 Vdd
FLAG 928 1024 Vdd
FLAG 928 816 Vdd
FLAG 928 672 Vdd
FLAG 928 528 Vdd
FLAG 928 384 Vdd
FLAG 928 176 Vdd
FLAG 1232 96 Vdd
FLAG 1232 224 Vdd
FLAG 1472 96 Vdd
FLAG 1472 224 Vdd
FLAG 1472 368 Vdd
FLAG 1232 368 Vdd
FLAG 1232 512 Vdd
FLAG 1232 656 Vdd
FLAG 1472 512 Vdd
FLAG 1472 656 Vdd
FLAG 1232 800 Vdd
FLAG 1472 800 Vdd
FLAG 1232 944 Vdd
FLAG 1472 944 Vdd
FLAG 1232 1072 Vdd
FLAG 1472 1072 Vdd
FLAG 384 480 Vdd
FLAG 64 480 E
IOPIN 64 480 In
SYMBOL my-nand 224 624 R0
SYMATTR InstName X1
SYMBOL my-nand 224 752 R0
SYMATTR InstName X2
SYMBOL my-nand 224 880 R0
SYMATTR InstName X3
SYMBOL my-nand 688 240 R0
SYMATTR InstName X4
SYMBOL my-nand 928 240 R0
SYMATTR InstName X5
SYMBOL my-nand 1232 160 R0
SYMATTR InstName X6
SYMBOL my-nand 1472 160 R0
SYMATTR InstName X7
SYMBOL my-nand 1232 288 R0
SYMATTR InstName X8
SYMBOL my-nand 1472 288 R0
SYMATTR InstName X9
SYMBOL my-nand 688 448 R0
SYMATTR InstName X10
SYMBOL my-nand 928 448 R0
SYMATTR InstName X11
SYMBOL my-nand 1232 432 R0
SYMATTR InstName X12
SYMBOL my-nand 1472 432 R0
SYMATTR InstName X13
SYMBOL my-nand 688 592 R0
SYMATTR InstName X14
SYMBOL my-nand 928 592 R0
SYMATTR InstName X15
SYMBOL my-nand 1232 576 R0
SYMATTR InstName X16
SYMBOL my-nand 1472 576 R0
SYMATTR InstName X17
SYMBOL my-nand 688 736 R0
SYMATTR InstName X18
SYMBOL my-nand 928 736 R0
SYMATTR InstName X19
SYMBOL my-nand 1232 720 R0
SYMATTR InstName X20
SYMBOL my-nand 1472 720 R0
SYMATTR InstName X21
SYMBOL my-nand 688 880 R0
SYMATTR InstName X22
SYMBOL my-nand 928 880 R0
SYMATTR InstName X23
SYMBOL my-nand 1232 864 R0
SYMATTR InstName X24
SYMBOL my-nand 1472 864 R0
SYMATTR InstName X25
SYMBOL my-nand 688 1088 R0
SYMATTR InstName X26
SYMBOL my-nand 928 1088 R0
SYMATTR InstName X27
SYMBOL my-nand 1232 1008 R0
SYMATTR InstName X28
SYMBOL my-nand 1472 1008 R0
SYMATTR InstName X29
SYMBOL my-nand 1232 1136 R0
SYMATTR InstName X32
SYMBOL my-nand 1472 1136 R0
SYMATTR InstName X33
TEXT 96 304 Left 2 !.include 90nm_bulk.txt
