Version 4
SHEET 1 1104 864
WIRE 160 -64 -80 -64
WIRE 512 -48 512 -96
WIRE 688 -48 688 -96
WIRE 864 -48 864 -96
WIRE 1040 -48 1040 -96
WIRE 416 -32 416 -96
WIRE 592 -32 592 -96
WIRE 768 -32 768 -96
WIRE 944 -32 944 -96
WIRE 240 0 240 -128
WIRE 464 32 416 32
WIRE 512 32 464 32
WIRE 640 32 592 32
WIRE 688 32 640 32
WIRE 816 32 768 32
WIRE 864 32 816 32
WIRE 992 32 944 32
WIRE 1040 32 992 32
WIRE 112 48 -80 48
WIRE 464 48 464 32
WIRE 464 48 320 48
WIRE 160 80 160 -64
WIRE 640 80 640 32
WIRE 640 80 320 80
WIRE 816 112 816 32
WIRE 816 112 320 112
WIRE 112 128 112 48
WIRE 160 128 112 128
WIRE 992 144 992 32
WIRE 992 144 320 144
WIRE 160 176 -80 176
WIRE 992 176 320 176
WIRE 816 208 320 208
WIRE 640 240 320 240
WIRE 160 256 112 256
WIRE 464 272 320 272
WIRE 464 288 464 272
WIRE 464 288 416 288
WIRE 512 288 464 288
WIRE 640 288 640 240
WIRE 640 288 592 288
WIRE 688 288 640 288
WIRE 816 288 816 208
WIRE 816 288 768 288
WIRE 864 288 816 288
WIRE 992 288 992 176
WIRE 992 288 944 288
WIRE 1040 288 992 288
WIRE 112 320 112 256
WIRE 112 320 -80 320
WIRE 416 416 416 368
WIRE 512 416 512 352
WIRE 592 416 592 368
WIRE 688 416 688 352
WIRE 768 416 768 368
WIRE 864 416 864 352
WIRE 944 416 944 368
WIRE 1040 416 1040 352
FLAG 512 -96 0
FLAG 416 -96 0
FLAG 688 -96 0
FLAG 592 -96 0
FLAG 864 -96 0
FLAG 768 -96 0
FLAG 1040 -96 0
FLAG 944 -96 0
FLAG 944 416 0
FLAG 1040 416 0
FLAG 768 416 0
FLAG 864 416 0
FLAG 592 416 0
FLAG 688 416 0
FLAG 416 416 0
FLAG 512 416 0
FLAG -160 -64 0
FLAG -160 48 0
FLAG -160 176 0
FLAG -160 320 0
FLAG 240 -208 0
SYMBOL positional-decoder-3-to-8 240 160 R0
SYMATTR InstName X1
SYMBOL res 528 48 R180
WINDOW 0 36 76 Left 2
WINDOW 3 36 40 Left 2
SYMATTR InstName R1
SYMATTR Value 100k
SYMBOL cap 432 32 R180
WINDOW 0 24 56 Left 2
WINDOW 3 24 8 Left 2
SYMATTR InstName C1
SYMATTR Value 100f
SYMBOL res 704 48 R180
WINDOW 0 36 76 Left 2
WINDOW 3 36 40 Left 2
SYMATTR InstName R2
SYMATTR Value 100k
SYMBOL cap 608 32 R180
WINDOW 0 24 56 Left 2
WINDOW 3 24 8 Left 2
SYMATTR InstName C2
SYMATTR Value 100f
SYMBOL res 880 48 R180
WINDOW 0 36 76 Left 2
WINDOW 3 36 40 Left 2
SYMATTR InstName R3
SYMATTR Value 100k
SYMBOL cap 784 32 R180
WINDOW 0 24 56 Left 2
WINDOW 3 24 8 Left 2
SYMATTR InstName C3
SYMATTR Value 100f
SYMBOL res 1056 48 R180
WINDOW 0 36 76 Left 2
WINDOW 3 36 40 Left 2
SYMATTR InstName R4
SYMATTR Value 100k
SYMBOL cap 960 32 R180
WINDOW 0 24 56 Left 2
WINDOW 3 24 8 Left 2
SYMATTR InstName C4
SYMATTR Value 100f
SYMBOL res 928 272 R0
SYMATTR InstName R5
SYMATTR Value 100k
SYMBOL cap 1024 288 R0
SYMATTR InstName C5
SYMATTR Value 100f
SYMBOL res 752 272 R0
SYMATTR InstName R6
SYMATTR Value 100k
SYMBOL cap 848 288 R0
SYMATTR InstName C6
SYMATTR Value 100f
SYMBOL res 576 272 R0
SYMATTR InstName R7
SYMATTR Value 100k
SYMBOL cap 672 288 R0
SYMATTR InstName C7
SYMATTR Value 100f
SYMBOL res 400 272 R0
SYMATTR InstName R8
SYMATTR Value 100k
SYMBOL cap 496 288 R0
SYMATTR InstName C8
SYMATTR Value 100f
SYMBOL voltage -64 -64 R90
WINDOW 0 -32 56 VBottom 2
WINDOW 3 32 56 VTop 2
WINDOW 123 0 0 Left 0
WINDOW 39 0 0 Left 0
SYMATTR InstName V1
SYMATTR Value PULSE(0 1 1n 10p 10p 2n 4n)
SYMBOL voltage -64 48 R90
WINDOW 0 -32 56 VBottom 2
WINDOW 3 32 56 VTop 2
WINDOW 123 0 0 Left 0
WINDOW 39 0 0 Left 0
SYMATTR InstName V2
SYMATTR Value PULSE(0 1 1n 10p 10p 4n 8n)
SYMBOL voltage -64 176 R90
WINDOW 0 -32 56 VBottom 2
WINDOW 3 32 56 VTop 2
WINDOW 123 0 0 Left 0
WINDOW 39 0 0 Left 0
SYMATTR InstName V3
SYMATTR Value PULSE(0 1 1n 10p 10p 8n 16n)
SYMBOL voltage -64 320 R90
WINDOW 0 -32 56 VBottom 2
WINDOW 3 32 56 VTop 2
WINDOW 123 0 0 Left 0
WINDOW 39 0 0 Left 0
SYMATTR InstName V4
SYMATTR Value PULSE(0 1 1.5n 10p 10p 1n 2n)
SYMBOL voltage 240 -112 R180
WINDOW 0 24 96 Left 2
WINDOW 3 24 16 Left 2
WINDOW 123 0 0 Left 0
WINDOW 39 0 0 Left 0
SYMATTR InstName V5
SYMATTR Value 1
TEXT -136 -264 Left 2 !.include 90nm_bulk.txt
TEXT -304 440 Left 2 !.tran 0 18n 0
