Version 4
SHEET 1 880 680
WIRE -176 80 -192 80
WIRE 48 80 -96 80
WIRE 176 112 176 80
WIRE -192 128 -192 80
WIRE -480 144 -480 96
WIRE 48 160 48 80
WIRE 112 160 48 160
WIRE 432 176 272 176
WIRE 544 176 432 176
WIRE 112 192 48 192
WIRE -480 256 -480 224
WIRE -368 256 -368 208
WIRE -176 272 -192 272
WIRE 48 272 48 192
WIRE 48 272 -96 272
WIRE 432 304 432 256
WIRE 544 304 544 240
WIRE -192 320 -192 272
WIRE 176 336 176 240
FLAG -480 256 0
FLAG -192 128 0
FLAG -192 320 0
FLAG -480 96 VDD
FLAG 176 80 VDD
FLAG -368 256 0
FLAG -368 208 VSS
FLAG 176 336 VSS
FLAG 432 304 0
FLAG 544 304 0
SYMBOL positional-decoder-3-to-8 176 176 R0
SYMATTR InstName X1
SYMBOL voltage -80 80 R90
WINDOW 0 27 -12 VRight 2
WINDOW 3 -48 -102 VRight 2
WINDOW 123 0 0 Left 0
WINDOW 39 0 0 Left 0
SYMATTR InstName V1
SYMATTR Value PULSE(0 1 1n 10p 10p 2n 4n)
SYMBOL voltage -80 272 R90
WINDOW 0 35 -13 VRight 2
WINDOW 3 -52 -100 VRight 2
WINDOW 123 0 0 Left 0
WINDOW 39 0 0 Left 0
SYMATTR InstName V2
SYMATTR Value PULSE(0 1 1n 10p 10p 4n 8n)
SYMBOL voltage -480 128 R0
WINDOW 123 0 0 Left 0
WINDOW 39 0 0 Left 0
SYMATTR InstName V3
SYMATTR Value 1
SYMBOL res 416 160 R0
SYMATTR InstName R1
SYMATTR Value 100k
SYMBOL cap 528 176 R0
SYMATTR InstName C1
SYMATTR Value 100f
TEXT 392 -64 Left 2 !.include 90nm_bulk.txt
TEXT -512 344 Left 2 !.tran 0 10n 0 1p
