Version 4
SHEET 1 880 680
WIRE -176 80 -192 80
WIRE 48 80 -96 80
WIRE 176 112 176 80
WIRE -192 128 -192 80
WIRE -480 144 -480 96
WIRE 48 160 48 80
WIRE 112 160 48 160
WIRE 336 176 272 176
WIRE 448 176 336 176
WIRE 112 192 48 192
WIRE -480 256 -480 224
WIRE -176 272 -192 272
WIRE 48 272 48 192
WIRE 48 272 -96 272
WIRE 336 304 336 256
WIRE 448 304 448 240
WIRE -192 320 -192 272
FLAG -480 256 0
FLAG -192 128 0
FLAG -192 320 0
FLAG -480 96 VDD
FLAG 176 80 VDD
FLAG 336 304 0
FLAG 448 304 0
SYMBOL voltage -80 80 R90
WINDOW 0 27 -12 VRight 2
WINDOW 3 -48 -102 VRight 2
WINDOW 123 0 0 Left 0
WINDOW 39 0 0 Left 0
SYMATTR InstName V1
SYMATTR Value PULSE(0 1 1n 10p 10p 2n 4n)
SYMBOL voltage -80 272 R90
WINDOW 0 35 -13 VRight 2
WINDOW 3 -52 -100 VRight 2
WINDOW 123 0 0 Left 0
WINDOW 39 0 0 Left 0
SYMATTR InstName V2
SYMATTR Value PULSE(0 1 1n 10p 10p 4n 8n)
SYMBOL voltage -480 128 R0
WINDOW 123 0 0 Left 0
WINDOW 39 0 0 Left 0
SYMATTR InstName V3
SYMATTR Value 1
SYMBOL res 320 160 R0
SYMATTR InstName R1
SYMATTR Value 100k
SYMBOL cap 432 176 R0
SYMATTR InstName C1
SYMATTR Value 100f
SYMBOL my-nand 176 176 R0
SYMATTR InstName X1
TEXT 216 -56 Left 2 !.include 90nm_bulk.txt
TEXT -512 344 Left 2 !.tran 0 10n 0 1p
